*Heading
** Job name: UNNOTCHED Model name: Model-1
** Generated by: Abaqus/CAE 6.13-1
*Preprint, echo=NO, model=NO, history=NO, contact=NO
**
** PARTS
**
*Part, name=Part-1
*End Part
**  
**
** ASSEMBLY
**
*Assembly, name=Assembly
**  
*Instance, name=Part-1-1, part=Part-1
*Node
      1,          10.,         -40.,           4.
      2,         -10.,         -40.,           4.
      3,         -10.,        -100.,           4.
      4,          10.,        -100.,           4.
      5,         -10.,          40.,           4.
      6,          10.,          40.,           4.
      7,          10.,         100.,           4.
      8,         -10.,     41.04356,           4.
      9,         -10.,         100.,           4.
     10,          2.5,  -28.5435619,           4.
     11,         -2.5,  -28.5435619,           4.
     12,         -2.5,   28.5435619,           4.
     13,          2.5,   28.5435619,           4.
     14,     9.090909,         -40.,           4.
     15,   8.18181801,         -40.,           4.
     16,   7.27272749,         -40.,           4.
     17,   6.36363649,         -40.,           4.
     18,    5.4545455,         -40.,           4.
     19,    4.5454545,         -40.,           4.
     20,   3.63636374,         -40.,           4.
** ... 19385 like lines cut
*Element, type=C3D8R
    1,   187,   555,    14,     1,  4068,  4436,  3895,  3882
    2,   555,   556,    15,    14,  4436,  4437,  3896,  3895
    3,   556,   557,    16,    15,  4437,  4438,  3897,  3896
    4,   557,   558,    17,    16,  4438,  4439,  3898,  3897
    5,   558,   559,    18,    17,  4439,  4440,  3899,  3898
    6,   559,   560,    19,    18,  4440,  4441,  3900,  3899
    7,   560,   561,    20,    19,  4441,  4442,  3901,  3900
    8,   561,   562,    21,    20,  4442,  4443,  3902,  3901
    9,   562,   563,    22,    21,  4443,  4444,  3903,  3902
   10,   563,   564,    23,    22,  4444,  4445,  3904,  3903
   11,   564,   565,    24,    23,  4445,  4446,  3905,  3904
   12,   565,   566,    25,    24,  4446,  4447,  3906,  3905
   13,   566,   567,    26,    25,  4447,  4448,  3907,  3906
   14,   567,   568,    27,    26,  4448,  4449,  3908,  3907
   15,   568,   569,    28,    27,  4449,  4450,  3909,  3908
   16,   569,   570,    29,    28,  4450,  4451,  3910,  3909
   17,   570,   571,    30,    29,  4451,  4452,  3911,  3910
   18,   571,   572,    31,    30,  4452,  4453,  3912,  3911
   19,   572,   573,    32,    31,  4453,  4454,  3913,  3912
   20,   573,   574,    33,    32,  4454,  4455,  3914,  3913
** ... 14496 like lines cut
*Nset, nset=Set-1, generate
     1,  19405,      1
*Elset, elset=Set-1, generate
     1,  14516,      1
** Section: Section-1
*Solid Section, elset=Set-1, material=Aluminum
,
*End Instance
**  
*Node
      1,           0.,           0.,           0.
*Node
      2,           0.,          25.,           0.
*Node
      3,           0.,         -25.,           0.
*Node
      4,           0.,        -100.,           4.
*Node
      5,           0.,         100.,           4.
*Nset, nset=CLIP_GAUGE, instance=Part-1-1
 3589, 3864
*Nset, nset=LOAD
 4,
*Nset, nset=LOAD_TOP
 5,
*Nset, nset=Set-2
 4,
*Nset, nset=Set-3, instance=Part-1-1
     7,     9,   275,   276,   277,   278,   279,   280,   281,   282,   283,   284,   285,   286,   287,   288
   289,   290,   291,   292,   293,   294,   295,  3888,  3890,  4156,  4157,  4158,  4159,  4160,  4161,  4162
  4163,  4164,  4165,  4166,  4167,  4168,  4169,  4170,  4171,  4172,  4173,  4174,  4175,  4176,  7769,  7771
  8037,  8038,  8039,  8040,  8041,  8042,  8043,  8044,  8045,  8046,  8047,  8048,  8049,  8050,  8051,  8052
  8053,  8054,  8055,  8056,  8057, 11650, 11652, 11918, 11919, 11920, 11921, 11922, 11923, 11924, 11925, 11926
 11927, 11928, 11929, 11930, 11931, 11932, 11933, 11934, 11935, 11936, 11937, 11938, 15531, 15533, 15799, 15800
 15801, 15802, 15803, 15804, 15805, 15806, 15807, 15808, 15809, 15810, 15811, 15812, 15813, 15814, 15815, 15816
 15817, 15818, 15819
*Elset, elset=Set-3, instance=Part-1-1
  2927,  2928,  2929,  2930,  2931,  2932,  2933,  2934,  2935,  2936,  2937,  2938,  2939,  2940,  2941,  2942
  2943,  2944,  2945,  2946,  2947,  2948,  6556,  6557,  6558,  6559,  6560,  6561,  6562,  6563,  6564,  6565
  6566,  6567,  6568,  6569,  6570,  6571,  6572,  6573,  6574,  6575,  6576,  6577, 10185, 10186, 10187, 10188
 10189, 10190, 10191, 10192, 10193, 10194, 10195, 10196, 10197, 10198, 10199, 10200, 10201, 10202, 10203, 10204
 10205, 10206, 13814, 13815, 13816, 13817, 13818, 13819, 13820, 13821, 13822, 13823, 13824, 13825, 13826, 13827
 13828, 13829, 13830, 13831, 13832, 13833, 13834, 13835
*Nset, nset=Set-4, instance=Part-1-1
     7,     9,   275,   276,   277,   278,   279,   280,   281,   282,   283,   284,   285,   286,   287,   288
   289,   290,   291,   292,   293,   294,   295,  3888,  3890,  4156,  4157,  4158,  4159,  4160,  4161,  4162
  4163,  4164,  4165,  4166,  4167,  4168,  4169,  4170,  4171,  4172,  4173,  4174,  4175,  4176,  7769,  7771
  8037,  8038,  8039,  8040,  8041,  8042,  8043,  8044,  8045,  8046,  8047,  8048,  8049,  8050,  8051,  8052
  8053,  8054,  8055,  8056,  8057, 11650, 11652, 11918, 11919, 11920, 11921, 11922, 11923, 11924, 11925, 11926
 11927, 11928, 11929, 11930, 11931, 11932, 11933, 11934, 11935, 11936, 11937, 11938, 15531, 15533, 15799, 15800
 15801, 15802, 15803, 15804, 15805, 15806, 15807, 15808, 15809, 15810, 15811, 15812, 15813, 15814, 15815, 15816
 15817, 15818, 15819
*Elset, elset=Set-4, instance=Part-1-1
  2927,  2928,  2929,  2930,  2931,  2932,  2933,  2934,  2935,  2936,  2937,  2938,  2939,  2940,  2941,  2942
  2943,  2944,  2945,  2946,  2947,  2948,  6556,  6557,  6558,  6559,  6560,  6561,  6562,  6563,  6564,  6565
  6566,  6567,  6568,  6569,  6570,  6571,  6572,  6573,  6574,  6575,  6576,  6577, 10185, 10186, 10187, 10188
 10189, 10190, 10191, 10192, 10193, 10194, 10195, 10196, 10197, 10198, 10199, 10200, 10201, 10202, 10203, 10204
 10205, 10206, 13814, 13815, 13816, 13817, 13818, 13819, 13820, 13821, 13822, 13823, 13824, 13825, 13826, 13827
 13828, 13829, 13830, 13831, 13832, 13833, 13834, 13835
*Nset, nset=m_Set-1
 4,
*Nset, nset=m_Set-8
 5,
*Elset, elset=_s_Surf-1_S3, internal, instance=Part-1-1
  1453,  1454,  1455,  1456,  1457,  1458,  1459,  1460,  1461,  1462,  1463,  1464,  1465,  1466,  1467,  1468
  1469,  1470,  1471,  1472,  1473,  1474,  5082,  5083,  5084,  5085,  5086,  5087,  5088,  5089,  5090,  5091
  5092,  5093,  5094,  5095,  5096,  5097,  5098,  5099,  5100,  5101,  5102,  5103,  8711,  8712,  8713,  8714
  8715,  8716,  8717,  8718,  8719,  8720,  8721,  8722,  8723,  8724,  8725,  8726,  8727,  8728,  8729,  8730
  8731,  8732, 12340, 12341, 12342, 12343, 12344, 12345, 12346, 12347, 12348, 12349, 12350, 12351, 12352, 12353
 12354, 12355, 12356, 12357, 12358, 12359, 12360, 12361
*Surface, type=ELEMENT, name=s_Surf-1
_s_Surf-1_S3, S3
*Elset, elset=_s_Surf-2_S3, internal, instance=Part-1-1
  2927,  2928,  2929,  2930,  2931,  2932,  2933,  2934,  2935,  2936,  2937,  2938,  2939,  2940,  2941,  2942
  2943,  2944,  2945,  2946,  2947,  2948,  6556,  6557,  6558,  6559,  6560,  6561,  6562,  6563,  6564,  6565
  6566,  6567,  6568,  6569,  6570,  6571,  6572,  6573,  6574,  6575,  6576,  6577, 10185, 10186, 10187, 10188
 10189, 10190, 10191, 10192, 10193, 10194, 10195, 10196, 10197, 10198, 10199, 10200, 10201, 10202, 10203, 10204
 10205, 10206, 13814, 13815, 13816, 13817, 13818, 13819, 13820, 13821, 13822, 13823, 13824, 13825, 13826, 13827
 13828, 13829, 13830, 13831, 13832, 13833, 13834, 13835
*Surface, type=ELEMENT, name=s_Surf-2
_s_Surf-2_S3, S3
** Constraint: Constraint-Bottom
*Coupling, constraint name=Constraint-Bottom, ref node=m_Set-1, surface=s_Surf-1
*Kinematic
** Constraint: Constraint-Top
*Coupling, constraint name=Constraint-Top, ref node=m_Set-8, surface=s_Surf-2
*Kinematic
*End Assembly
*Amplitude, name=Amp-1
             0.,              0.,             0.1,             0.1,             0.2,             0.2,             0.3,             0.3
            0.4,             0.4,             0.5,             0.5,             0.6,             0.6,             0.7,             0.7
            0.8,             0.8,             0.9,             0.9,              1.,              1.
** 
** MATERIALS
** 
** Aluminum alloy AlCuMg1 EN AW 2017
** 
** Hardening Law:
** Sigma_y = Sima_0 + R_0 * Epsilon_pl + R_inf(1 -  e^(-b*Epsilon_pl)
** Sigma_0 = 329 Mpa
** R_0 = 120 MPa
** R_inf = 190 Mpa
** b = 15
*Material, name=Aluminum
*Density
 2.78e-09,
*Elastic
70000., 0.3
*Plastic
    260.,          0.
 281.379, 0.000496659
  295.86, 0.000724965
 306.295,  0.00106101
 316.527,  0.00163766
 324.255,  0.00240648
 328.565,  0.00305265
 332.203,  0.00375542
 335.418,  0.00450035
 338.172,  0.00525838
 340.619,  0.00603273
 343.027,  0.00688394
 345.137,   0.0076583
 347.062,  0.00847804
 349.096,  0.00930511
 350.966,   0.0101482
 352.783,   0.0109506
 354.566,   0.0117664
 356.323,   0.0126078
 357.969,   0.0134353
** ... 158 like lines cut
** 
** BOUNDARY CONDITIONS
** 
** Name: BC-Encastre Type: Symmetry/Antisymmetry/Encastre
*Boundary
Set-2, ENCASTRE
** Name: BC-Top Type: Displacement/Rotation
*Boundary
Set-3, 1, 1
Set-3, 3, 3
Set-3, 4, 4
Set-3, 5, 5
Set-3, 6, 6
** ----------------------------------------------------------------
** 
** STEP: Step-1
** 
*Step, name=Step-1, nlgeom=YES
*Dynamic, Explicit
, 1.
*Bulk Viscosity
0.06, 1.2
** Mass Scaling: Semi-Automatic
**               Whole Model
*Fixed Mass Scaling, factor=150.
** 
** LOADS
** 
** Name: Load-1   Type: Concentrated force
*Cload, amplitude=Amp-1
LOAD_TOP, 2, 9000.
** 
** OUTPUT REQUESTS
** 
*Restart, write, number interval=1, time marks=NO
** 
** FIELD OUTPUT: F-Output-1
** 
*Output, field, number interval=100
*Node Output
CF, RF, U
*Element Output, directions=YES
MISESONLY, PE, PEEQ, PRESSONLY, S, TRIAX
** 
** HISTORY OUTPUT: H-Output-1
** 
*Output, history, variable=PRESELECT
*End Step
